# generated using pymatgen
data_HfSeCl2
_symmetry_space_group_name_H-M   'P 1'
_cell_length_a   3.16260941
_cell_length_b   3.73534534
_cell_length_c   19.88835669
_cell_angle_alpha   90.00000000
_cell_angle_beta   90.00000000
_cell_angle_gamma   92.19677639
_symmetry_Int_Tables_number   1
_chemical_formula_structural   HfSeCl2
_chemical_formula_sum   'Hf1 Se1 Cl2'
_cell_volume   234.77720468
_cell_formula_units_Z   1
loop_
 _symmetry_equiv_pos_site_id
 _symmetry_equiv_pos_as_xyz
  1  'x, y, z'
loop_
 _atom_site_type_symbol
 _atom_site_label
 _atom_site_symmetry_multiplicity
 _atom_site_fract_x
 _atom_site_fract_y
 _atom_site_fract_z
 _atom_site_occupancy
  Hf  Hf0  1  0.70710678  -0.19875067  0.07469964  1
  Se  Se1  1  0.20664515  0.30098221  0.02489912  1
  Cl  Cl2  1  0.20821246  0.80368171  0.17508365  1
  Cl  Cl3  1  -0.29219747  0.80097233  -0.05784701  1
