# generated using pymatgen
data_HfTaClO2
_symmetry_space_group_name_H-M   'P 1'
_cell_length_a   3.09141792
_cell_length_b   5.44466483
_cell_length_c   18.71901107
_cell_angle_alpha   90.00000000
_cell_angle_beta   90.00000000
_cell_angle_gamma   89.94518928
_symmetry_Int_Tables_number   1
_chemical_formula_structural   HfTaClO2
_chemical_formula_sum   'Hf1 Ta1 Cl1 O2'
_cell_volume   315.07327839
_cell_formula_units_Z   1
loop_
 _symmetry_equiv_pos_site_id
 _symmetry_equiv_pos_as_xyz
  1  'x, y, z'
loop_
 _atom_site_type_symbol
 _atom_site_label
 _atom_site_symmetry_multiplicity
 _atom_site_fract_x
 _atom_site_fract_y
 _atom_site_fract_z
 _atom_site_occupancy
  Hf  Hf0  1  0.53065637  0.10597206  0.03523538  1
  Ta  Ta1  1  0.02972457  0.55481926  0.05118939  1
  Cl  Cl2  1  0.52853467  0.70381031  0.14742991  1
  O  O3  1  0.03075286  -0.14675438  -0.00395589  1
  O  O4  1  0.03052047  0.21057271  0.10064750  1
