# generated using pymatgen
data_MnS
_symmetry_space_group_name_H-M   'P 1'
_cell_length_a   2.79078222
_cell_length_b   2.76289071
_cell_length_c   25.21052713
_cell_angle_alpha   92.80741694
_cell_angle_beta   118.86295910
_cell_angle_gamma   60.88496466
_symmetry_Int_Tables_number   1
_chemical_formula_structural   MnS
_chemical_formula_sum   'Mn1 S1'
_cell_volume   144.27387084
_cell_formula_units_Z   1
loop_
 _symmetry_equiv_pos_site_id
 _symmetry_equiv_pos_as_xyz
  1  'x, y, z'
loop_
 _atom_site_type_symbol
 _atom_site_label
 _atom_site_symmetry_multiplicity
 _atom_site_fract_x
 _atom_site_fract_y
 _atom_site_fract_z
 _atom_site_occupancy
  Mn  Mn0  1  0.28200413  0.76230465  0.00200806  1
  S  S1  1  0.97921720  -0.05237251  0.06672196  1
