# generated using pymatgen
data_SeS2
_symmetry_space_group_name_H-M   'P 1'
_cell_length_a   3.54836852
_cell_length_b   4.55700006
_cell_length_c   16.64038253
_cell_angle_alpha   90.00000000
_cell_angle_beta   90.00000000
_cell_angle_gamma   90.23678967
_symmetry_Int_Tables_number   1
_chemical_formula_structural   SeS2
_chemical_formula_sum   'Se2 S4'
_cell_volume   269.07128260
_cell_formula_units_Z   2
loop_
 _symmetry_equiv_pos_site_id
 _symmetry_equiv_pos_as_xyz
  1  'x, y, z'
loop_
 _atom_site_type_symbol
 _atom_site_label
 _atom_site_symmetry_multiplicity
 _atom_site_fract_x
 _atom_site_fract_y
 _atom_site_fract_z
 _atom_site_occupancy
  Se  Se0  1  0.68290386  0.35989320  0.81413296  1
  Se  Se1  1  -0.06318788  0.30083552  0.13692536  1
  S  S2  1  -0.08963460  0.61890071  0.03517725  1
  S  S3  1  0.56707351  -0.05596293  1.08147588  1
  S  S4  1  0.70069676  0.67783244  0.71213139  1
  S  S5  1  0.04726980  0.00499725  0.75817859  1
