# generated using pymatgen
data_SnS
_symmetry_space_group_name_H-M   'P 1'
_cell_length_a   3.46284999
_cell_length_b   3.47473174
_cell_length_c   39.40946249
_cell_angle_alpha   113.07791736
_cell_angle_beta   106.09519075
_cell_angle_gamma   62.04685438
_symmetry_Int_Tables_number   1
_chemical_formula_structural   SnS
_chemical_formula_sum   'Sn1 S1'
_cell_volume   382.79002803
_cell_formula_units_Z   1
loop_
 _symmetry_equiv_pos_site_id
 _symmetry_equiv_pos_as_xyz
  1  'x, y, z'
loop_
 _atom_site_type_symbol
 _atom_site_label
 _atom_site_symmetry_multiplicity
 _atom_site_fract_x
 _atom_site_fract_y
 _atom_site_fract_z
 _atom_site_occupancy
  Sn  Sn0  1  1.28516961  1.01249582  0.11912437  1
  S  S1  1  1.00648303  0.83857704  0.16248021  1
