# generated using pymatgen
data_SnS5
_symmetry_space_group_name_H-M   'P 1'
_cell_length_a   4.14632528
_cell_length_b   4.40493442
_cell_length_c   18.43545008
_cell_angle_alpha   90.00000000
_cell_angle_beta   90.00000000
_cell_angle_gamma   90.44905015
_symmetry_Int_Tables_number   1
_chemical_formula_structural   SnS5
_chemical_formula_sum   'Sn1 S5'
_cell_volume   336.70008279
_cell_formula_units_Z   1
loop_
 _symmetry_equiv_pos_site_id
 _symmetry_equiv_pos_as_xyz
  1  'x, y, z'
loop_
 _atom_site_type_symbol
 _atom_site_label
 _atom_site_symmetry_multiplicity
 _atom_site_fract_x
 _atom_site_fract_y
 _atom_site_fract_z
 _atom_site_occupancy
  Sn  Sn0  1  -0.16020399  0.70479588  0.92217203  1
  S  S1  1  0.31164649  0.20078413  0.62259238  1
  S  S2  1  0.27754217  0.14497256  0.95552515  1
  S  S3  1  1.01196925  0.53595426  0.58278420  1
  S  S4  1  0.01533808  -0.13801418  0.66491713  1
  S  S5  1  0.32403514  -0.02491917  0.84846322  1
