# generated using pymatgen
data_TaSeBr
_symmetry_space_group_name_H-M   'P 1'
_cell_length_a   3.02045125
_cell_length_b   3.27089989
_cell_length_c   20.08033037
_cell_angle_alpha   90.00000000
_cell_angle_beta   90.00000000
_cell_angle_gamma   115.80189705
_symmetry_Int_Tables_number   1
_chemical_formula_structural   TaSeBr
_chemical_formula_sum   'Ta1 Se1 Br1'
_cell_volume   178.60733493
_cell_formula_units_Z   1
loop_
 _symmetry_equiv_pos_site_id
 _symmetry_equiv_pos_as_xyz
  1  'x, y, z'
loop_
 _atom_site_type_symbol
 _atom_site_label
 _atom_site_symmetry_multiplicity
 _atom_site_fract_x
 _atom_site_fract_y
 _atom_site_fract_z
 _atom_site_occupancy
  Ta  Ta0  1  0.92284832  0.66039420  0.08329516  1
  Se  Se1  1  0.59245150  1.00882738  0.17098546  1
  Br  Br2  1  0.59121353  1.00675395  -0.01150572  1
